[TITLE]
;;Project Title/Notes

[OPTIONS]
;;Option             Value
FLOW_UNITS           CMS
INFILTRATION         HORTON
FLOW_ROUTING         DYNWAVE
LINK_OFFSETS         ELEVATION
MIN_SLOPE            0
ALLOW_PONDING        YES
SKIP_STEADY_STATE    NO

START_DATE           01/01/2022
START_TIME           00:00:00
REPORT_START_DATE    01/01/2022
REPORT_START_TIME    00:00:00
END_DATE             01/01/2022
END_TIME             02:00:00
SWEEP_START          01/01
SWEEP_END            12/31
DRY_DAYS             0
REPORT_STEP          00:05:00
WET_STEP             00:05:00
DRY_STEP             01:00:00
ROUTING_STEP         0:00:30 


INERTIAL_DAMPING     PARTIAL
NORMAL_FLOW_LIMITED  BOTH
FORCE_MAIN_EQUATION  H-W
VARIABLE_STEP        0.75
LENGTHENING_STEP     0
MIN_SURFAREA         1.14
MAX_TRIALS           8
HEAD_TOLERANCE       0.0015
SYS_FLOW_TOL         5
LAT_FLOW_TOL         5
MINIMUM_STEP         0.5
THREADS              1

[EVAPORATION]
;;Data Source    Parameters
;;-------------- ----------------
CONSTANT         0.0
DRY_ONLY         NO

[RAINGAGES]
;;Name           Format    Interval SCF      Source    
;;-------------- --------- ------ ------ ----------
1                INTENSITY 0:05     1        TIMESERIES 100yr           

[SUBCATCHMENTS]
;;Name           Rain Gage        Outlet           Area     %Imperv  Width    %Slope   CurbLen  SnowPack        
;;-------------- ---------------- ---------------- -------- -------- -------- -------- -------- ----------------
S1               1                747              0.161523482 51.25    22.67477995 8.374896 0                        
S2               1                675              0.079745734 65.78125 15.93231838 6.066758 0                        
S3               1                291              2.39E-02 51.66667 8.716814944 1.811974 0                        
S4               1                810              0.318061107 66.88    31.81856065 4.052994 0                        
S5               1                959              0.529413941 75.92417 41.0509237 3.535534 0                        
S6               1                660              3.50E-02 75.38461 10.55563621 1        0                        
S7               1                402              0.119020447 62.23404 19.4641766 6.133165 0                        
S8               1                290              0.175000354 65.36232 23.60177742 6.718548 0                        
S9               1                75               2.01E-02 70.625   7.989052935 5.121203 0                        
S10              1                6                0.260057151 70.09434 28.77131071 2.429563 0                        
S11              1                500              3.52E-02 76.42857 10.58056093 3.173239 0                        
S12              1                773              2.44E-02 26.66667 8.811961951 5.506478 0                        
S13              1                961              0.104269155 77.7907  18.21810392 2.5      0                        
S14              1                669              2.15E-02 73.33334 8.27601482 4.750731 0                        
S15              1                398              0.131467971 69.41177 20.45668359 7.45356  0                        
S16              1                289              1.386880486 59.16065 66.44231653 10.44164 0                        
S17              1                410              9.38E-03 44       5.464667627 3.493349 0                        
S18              1                496              3.37E-02 24.28572 10.35370493 8.759915 0                        
S19              1                597              0.194246076 47.94872 24.86573918 8.516794 0                        
S20              1                664              5.33E-02 60       13.02353835 5        0                        
S21              1                885              8.08E-02 37.27273 16.03947934 4.289846 0                        
S22              1                970              0.10405531 62.92683 18.19941259 3.72678  0                        
S23              1                960              7.78E-02 72.34375 15.73403931 5.047246 0                        
S24              1                901              1.82E-02 35       7.603429944 5.71102  0                        
S25              1                775              1.71E-02 80       7.375541709 6.748334 0                        
S26              1                671              2.30E-02 60.90909 8.56389453 4.750731 0                        
S27              1                564              2.34E-02 73.33334 8.636993483 2.429563 0                        
S28              1                518              5.03E-02 30.5     12.64954557 5.15744  0                        
S29              1                403              7.05E-02 62.22222 14.98073934 1        0                        
S30              1                351              0.342271311 72.38806 33.00733767 7.682954 0                        
S31              1                150              0.128061731 77.54902 20.18993548 7.660324 0                        
S32              1                243              0.363955413 77.24138 34.03684826 5.093645 0                        
S33              1                358              0.101433404 73.09524 17.96866235 2.357023 0                        
S34              1                539              9.25E-02 46.84211 17.15746524 2.124591 0                        
S35              1                584              4.20E-02 50.88235 11.55621382 2.635231 0                        
S36              1                766              7.01E-02 74.42308 14.93609291 1        0                        
S37              1                897              5.05E-02 69.31818 12.68329664 2.946278 0                        
S38              1                978              5.91E-02 76.4     13.71573756 1        0                        
S39              1                998              4.56E-02 66.8421  12.04899773 1.822799 0                        
S40              1                1014             0.069257912 69.48276 14.84772601 3.173239 0                        
S41              1                1003             2.45E-02 70.55556 8.822259049 1        0                        
S42              1                982              4.39E-02 75.88235 11.82493584 6.152009 0                        
S43              1                953              0.034413386 68.84615 10.46619804 4.714045 0                        
S44              1                884              1.26E-02 58.33333 6.320650217 6.009252 0                        
S45              1                785              3.58E-02 51.875   10.67418564 1        0                        
S46              1                705              7.77E-02 44.375   15.73081891 1        0                        
S47              1                482              3.70E-02 72.8125  10.84550079 6.588078 0                        
S48              1                390              2.53E-02 31       8.975881463 1        0                        
S49              1                327              7.27E-02 58.21429 15.20816413 1        0                        
S50              1                311              7.56E-02 60.64516 15.50917658 1.965736 0                        
S51              1                300              0.129217351 70.38461 20.28082715 2.429563 0                        
S52              1                222              0.190021154 70.6579  24.59383318 1        0                        
S53              1                153              0.103682644 77.32558 18.16679346 1        0                        
S54              1                100              0.110747523 73.36957 18.77553225 1        0                        
S55              1                13               0.126617927 61       20.07579935 1        0                        
S56              1                1                9.20E-02 38.33333 17.11281872 2.946278 0                        
S57              1                3                7.58E-02 80       15.53204129 2.946278 0                        
S58              1                20               0.157728872 42.61905 22.40685201 3.435921 0                        
S59              1                70               0.098818874 77.23684 17.73557189 2.429563 0                        
S60              1                167              0.307456074 66.62698 31.28360444 3.435921 0                        
S61              1                256              0.171018683 78.09859 23.33173451 3.435921 0                        
S62              1                317              0.206134115 71.60256 25.6153435 3.435921 0                        
S63              1                335              3.09E-02 70       9.914305078 3.435921 0                        
S64              1                391              2.71E-02 75.83334 9.289058819 2.429563 0                        
S65              1                491              2.31E-02 26.66667 8.572918531 3.435921 0                        
S66              1                589              0.276209392 52.97297 29.6513498 3.435921 0                        
S67              1                791              1.52E-02 77       6.967193574 3.435921 0                        
S68              1                873              0.101998726 62       18.01866543 3.435921 0                        
S69              1                974              8.94E-02 61.35135 16.86950837 2.429563 0                        
S70              1                996              0.454543151 60.27778 38.03757363 2.429563 0                        
S71              1                962              0.607412112 57.99197 43.97106361 2.429563 0                        
S72              1                890              2.02E-02 45       8.019740269 2.635231 0                        
S73              1                662              0.095362539 69.02439 17.42264751 3.952847 0                        
S74              1                587              1.52E-02 55       6.957257241 3.173239 0                        
S75              1                388              0.028405606 68.33334 9.508834314 3.952847 0                        
S76              1                334              2.44E-02 62       8.819133648 3.173239 0                        
S77              1                295              0.193706613 77.625   24.83118645 3.173239 0                        
S78              1                253              0.10410655 62.07317 18.20389299 3.173239 0                        
S79              1                71               0.267298174 70.38095 29.16911435 3.173239 0                        
S80              1                8                0.3691168 67.85235 34.27734323 3.173239 0                        
S81              1                90               0.194281476 61.9375  24.86800488 3.173239 0                        
S82              1                162              1.63E-02 52.14286 7.205007585 5.432669 0                        
S83              1                242              1.66E-02 59.28571 7.278003671 0.5892556 0                        
S84              1                310              0.133406787 77.69231 20.60697337 3.173239 0                        
S85              1                401              2.64E-02 74.54546 9.160512258 3.435921 0                        
S86              1                504              0.012732975 72.5     6.366345274 7.168604 0                        
S87              1                586              7.75E-02 59.16667 15.70507628 7.168604 0                        
S88              1                744              0.099602403 69.23077 17.80574528 6.066758 0                        
S89              1                932              0.390530523 45.47771 35.25759939 6.066758 0                        
S90              1                783              0.1881705 70.72369 24.47377803 6.066758 0                        
S91              1                634              0.17240688 74.71014 23.4262376 4.859127 0                        
S92              1                583              1.79E-03 20       2.387672927 3.952847 0                        
S93              1                487              6.64E-02 59.23077 14.53818086 3.72678  0                        
S94              1                427              0.108744052 68.09524 18.6049284 3.72678  0                        
S95              1                340              0.299504709 63.34711 30.87642959 2.845178 0                        
S96              1                320              0.465637256 74.22872 38.49896975 2.5      0                        
S97              1                294              0.195117309 63.73418 24.92144077 2.845178 0                        
S98              1                251              4.70E-02 67.5     12.23519236 5.803495 0                        
S99              1                146              9.66E-02 72.75    17.5323579 4.750731 0                        
S100             1                12               0.170390869 73.75    23.28886945 4.750731 0                        
S101             1                16               0.126431065 78.8     20.06098 4.750731 0                        
S102             1                155              4.19E-02 56       11.54219553 4.750731 0                        
S103             1                239              2.62E-02 61.5     9.130329107 4.750731 0                        
S104             1                488              0.120523003 95       19.58665258 6.263874 0                        
S105             1                569              5.39E-02 77.27273 13.0973021 3.72678  0                        
S106             1                781              0.172376168 25.07246 23.42415093 3.72678  0                        
S107             1                878              3.41E-02 62       10.41128958 4.166667 0                        
S108             1                945              8.55E-02 71.42857 16.49845148 3.72678  0                        
S109             1                892              4.24E-02 74.33334 11.6129884 3.72678  0                        
S110             1                776              3.68E-02 73.66666 10.82204703 3.72678  0                        
S111             1                657              0.385433955 77.78523 35.02678146 8.374896 0                        
S112             1                616              0.128954694 70.28302 20.26020453 7.45356  0                        
S113             1                293              4.59E-02 78.42105 12.08145061 7.45356  0                        
S114             1                238              8.38E-02 49.28571 16.33494636 7.682954 0                        
S115             1                149              2.45E-02 76.25    8.825124044 7.45356  0                        
S116             1                79               2.72E-02 20       9.305640522 7.905694 0                        
S117             1                18               9.00E-02 78.19444 16.92435213 9.807169 0                        
S118             1                30               3.07E-02 77.91666 9.891099615 5.517026 0                        
S119             1                73               5.62E-03 20       4.230240833 10.44164 0                        
S120             1                143              7.93E-02 78.63636 15.88859184 11.84389 0                        
S121             1                218              3.88E-02 80       11.11172984 8.374896 0                        
S122             1                692              0.314591239 62.45833 31.64452341 8.374896 0                        
S123             1                777              1.39E-02 70.71429 6.657378952 7.682954 0                        
S124             1                896              0.132716605 63.86792 20.55359901 5        0                        
S125             1                877              3.66E-02 80       10.79396902 7.682954 0                        
S126             1                60               0.111016779 77.55556 18.79834256 7.682954 0                        
S127             1                34               0.103755788 76.90476 18.17320028 7.682954 0                        
S128             1                438              6.35E-02 20       14.21507046 7.682954 0                        
S129             1                437              2.41E-02 76.42857 8.760924376 7.682954 0                        
S130             1                436              1.82E-02 42.5     7.614449715 5        0                        
S131             1                429              1.92E-02 71.66666 7.821756186 5.432669 0                        
S132             1                423              3.51E-02 20       10.5727426 7.682954 0                        
S133             1                422              2.33E-02 71.36364 8.61827257 5.432669 0                        
S134             1                419              8.96E-03 50       5.340926868 5.432669 0                        
S135             1                407              0.034248043 69       10.44102486 3.952847 0                        
S136             1                396              1.46E-02 35       6.807014973 5.432669 0                        
S137             1                385              4.59E-02 63.05556 12.09065851 5.432669 0                        
S138             1                383              3.03E-02 65.5     9.820555552 3.952847 0                        
S139             1                382              1.14E-02 35       6.019518911 5.432669 0                        
S140             1                373              0.182342097 62.12329 24.09177064 5.432669 0                        
S141             1                372              0.395533649 59.43396 35.48272499 4.289846 0                        
S142             1                526              2.26E-02 20       8.474558144 4.289846 0                        
S143             1                530              1.22E-02 80       6.241588432 4.12479  0                        
S144             1                526              1.39E-02 56       6.640906809 4.289846 0                        
S145             1                515              1.54E-02 71.66666 7.010505388 2.364548 0                        
S146             1                505              1.37E-02 54       6.60528732 5.506478 0                        
S147             1                496              5.42E-02 60.68182 13.13894799 5.559027 0                        
S148             1                495              8.97E-03 60       5.342905 6.748334 0                        
S149             1                479              2.86E-02 44.54546 9.54568851 6.009252 0                        
S150             1                477              2.84E-02 20       9.510743523 6.009252 0                        
S151             1                496              6.97E-03 20       4.711440365 6.009252 0                        
S152             1                466              9.11E-02 50       17.02695329 6.009252 0                        
S153             1                477              4.83E-03 20       3.919903504 6.009252 0                        
S154             1                450              1.04E-02 76       5.758634077 4.750731 0                        
S155             1                457              3.88E-03 47.5     3.512994015 6.009252 0                        
S156             1                457              1.82E-02 31       7.604783471 5.432669 0                        
S157             1                450              3.81E-02 72.5     11.01778536 7.071068 0                        
S158             1                554              4.30E-02 37.8125  11.69419641 7.071068 0                        
S159             1                552              0.113072578 57.06522 18.97159715 7.071068 0                        
S160             1                550              4.26E-02 41.94444 11.63858728 7.071068 0                        
S161             1                706              0.079694758 59.55882 15.9272254 5.432669 0                        
S162             1                696              3.54E-02 77.72727 10.61644395 7.071068 0                        
S163             1                694              9.84E-02 61.57895 17.69745685 7.682954 0                        
S164             1                667              0.026188053 78.63636 9.130127741 7.095578 0                        
S165             1                664              1.23E-02 58.33333 6.247226816 5.034603 0                        
S166             1                661              1.21E-02 67       6.196889318 5.034603 0                        
S167             1                654              1.41E-02 43       6.698045697 5.034603 0                        
S168             1                649              0.128632597 60.39216 20.23488616 5.034603 0                        
S169             1                640              4.50E-02 71.05264 11.96547804 7.095578 0                        
S170             1                638              1.57E-02 77       7.063693468 2.429563 0                        
S171             1                635              5.81E-02 60       13.59992931 2.429563 0                        
S172             1                761              6.03E-02 50.8     13.85872225 2.635231 0                        
S173             1                721              2.95E-02 58.33333 9.685115984 5.370107 0                        
S174             1                924              0.060000538 27.3913  13.81983383 5.414745 0                        
S175             1                880              5.58E-02 42.72727 13.32967651 4.714045 0                        
S176             1                838              0.16326305 54.84615 22.79655382 3.584302 0                        
S177             1                949              7.25E-02 62.58621 15.19163667 6.481812 0                        
S178             1                946              5.20E-02 62.38095 12.86356668 5.921946 0                        
S179             1                943              0.057035258 62.82609 13.47401274 6.481812 0                        
S180             1                930              0.0178504 26.25    7.537879994 5.921946 0                        
S181             1                918              1.86E-02 73.88889 7.688497209 5.921946 0                        
S182             1                917              2.05E-02 48.33333 8.086734078 5.921946 0                        
S183             1                917              1.58E-02 30       7.094533293 6.481812 0                        
S184             1                905              5.77E-02 53.04348 13.55382976 3.584302 0                        
S185             1                903              2.42E-02 75       8.777326848 6.481812 0                        
S186             1                863              2.67E-02 49.58333 9.212544918 5.414745 0                        
S187             1                856              2.14E-02 35.71429 8.253072314 8.207381 0                        
S188             1                851              2.20E-02 75       8.37348439 8.207381 0                        
S189             1                850              1.47E-02 56       6.850249495 8.207381 0                        
S190             1                840              2.11E-02 76.66666 8.204240832 8.207381 0                        
S191             1                837              1.59E-02 50       7.107592249 8.207381 0                        
S192             1                834              2.74E-02 58.33333 9.339377264 7.682954 0                        
S193             1                832              7.34E-02 35.15152 15.28500532 6.588078 0                        
S194             1                802              2.88E-02 61.66667 9.570744211 6.588078 0                        
S195             1                799              2.52E-02 75.55556 8.964608093 6.588078 0                        
S196             1                797              2.02E-02 55.5     8.014079311 6.588078 0                        
S197             1                794              4.68E-02 47.8125  12.20615517 5.921946 0                        
S198             1                778              1.18E-02 77.5     6.134320312 6.508542 0                        
S199             1                770              1.70E-02 65       7.363325539 5.921946 0                        
S200             1                763              0.011942314 76.25    6.165516894 5.921946 0                        
S201             1                757              1.63E-02 55       7.208113742 5.921946 0                        
S202             1                755              1.76E-02 61.875   7.482397121 6.508542 0                        
S203             1                753              2.51E-02 75.41666 8.934780097 6.508542 0                        
S204             1                751              2.07E-02 53.33333 8.110564826 5.921946 0                        
S205             1                734              2.81E-02 42.5     9.452813578 6.508542 0                        
S206             1                726              2.85E-02 67.5     9.532630122 6.508542 0                        
S207             1                697              0.03077008 44.28571 9.896680731 5.921946 0                        
S208             1                695              3.56E-02 77.5     10.64620222 6.481812 0                        
S209             1                691              2.15E-02 75.625   8.267185397 6.508542 0                        
S210             1                690              1.72E-02 69.16666 7.399316995 7.28869  0                        
S211             1                683              1.83E-02 79.28571 7.63795476 7.28869  0                        
S212             1                681              7.18E-03 80       4.78021734 7.28869  0                        
S213             1                678              1.57E-02 80       7.068129184 6.718548 0                        
S214             1                670              2.72E-02 77       9.311069383 7.660324 0                        
S215             1                663              0.017314814 62.85714 7.423935098 7.660324 0                        
S216             1                659              1.36E-02 70       6.570645806 7.071068 0                        
S217             1                658              5.71E-03 80       4.263324183 7.660324 0                        
S218             1                656              1.93E-02 78.75    7.84122397 6.718548 0                        
S219             1                646              5.35E-03 20       4.125507174 7.660324 0                        
S220             1                645              7.16E-03 20       4.774953042 6.133165 0                        
S221             1                644              1.15E-02 68       6.046503751 3.206499 0                        
S222             1                643              6.37E-03 50       4.502587229 3.206499 0                        
S223             1                642              1.67E-02 76.25    7.288259121 6.133165 0                        
S224             1                639              7.38E-03 80       4.846503804 6.133165 0                        
S225             1                637              4.54E-03 20       3.801450171 3.206499 0                        
S226             1                636              6.02E-03 50       4.376567907 5.559027 0                        
S227             1                632              1.13E-02 80       5.999862159 3.206499 0                        
S228             1                626              1.75E-02 66.66666 7.461796324 7.28869  0                        
S229             1                624              1.17E-02 20       6.096084438 5.335937 0                        
S230             1                621              3.87E-02 20       11.09557349 1        0                        
S231             1                620              1.12E-02 80       5.959290255 2.357023 0                        
S232             1                611              2.28E-02 58.18182 8.511941078 3.952847 0                        
S233             1                609              3.22E-02 76.42857 10.11710211 3.72678  0                        
S234             1                594              2.80E-02 78       9.436128974 3.72678  0                        
S235             1                577              5.57E-02 44       13.31601275 3.72678  0                        
S236             1                560              3.27E-02 75.71429 10.20663711 3.535534 0                        
S237             1                555              1.78E-02 61.42857 7.521593875 2.946278 0                        
S238             1                551              1.98E-02 72.5     7.944144006 2.429563 0                        
S239             1                541              1.32E-02 80       6.476942045 2.429563 0                        
S240             1                540              0.030219047 44.58333 9.807665128 2.946278 0                        
S241             1                538              2.02E-02 41.25    8.021600604 2.429563 0                        